18

F   -2.7150513637619 -0.0081363417241 -0.3024207749548
F   -2.7414327293519 -0.0104889486149 -0.3062416030728
F   -3.1089961106050 -0.0424061060639 -0.3654198685551
C   -1.3017635433595 0.11436884108141 -0.0753345256191
C   -0.9460867060389 0.14527205657691 -0.0185645301343
C   -0.5905096796039 0.17613272789153 0.03846184518286
H   -1.1306959702237 0.92722509265755 0.62552453085949
H   -1.1254043127239 0.96437325193360 0.65701856590414
H   -1.1046054137031 0.92950959671624 0.62949441400874
H   -0.9326711805523 -0.8212180196626 0.33657277641205
H   -0.9183128733225 -0.8643552264960 0.35476498638890
H   -0.9066830675224 -0.8188489614334 0.34050601351659
H   -0.8135672921626 0.32629903686471 -1.0229116584472
H   -0.7945429605085 0.33579646846814 -1.0674859880329
H   -0.7886348372371 0.32851668912910 -1.0192404066994
F   1.21722835006037 0.33308587656242 0.32717516545638
F   0.84925809668100 0.30103042760210 0.26911508368215
F   0.82290762392091 0.29872205324634 0.26480200254648
