18

F   -2.7150673046022 -0.0081342848415 -0.3024279740440
F   -2.7414023733098 -0.0104863760300 -0.3062364581448
F   -3.1091380355050 -0.0424184473596 -0.3654424942638
C   -1.3017928539367 0.11436164199228 -0.0753319545159
C   -0.9460867367340 0.14527205391012 -0.0185660777048
C   -0.5904855112333 0.17613632743610 0.03846081674156
H   -1.1307324798901 0.92723383440864 0.62551167534319
H   -1.1254032854230 0.96437068073274 0.65701599462588
H   -1.1045678755955 0.92951731002603 0.62950315575983
H   -0.9327025480121 -0.8212344747235 0.33656352044032
H   -0.9183128744581 -0.8643521412787 0.35476344355462
H   -0.9066419298703 -0.8188479329921 0.34051166994377
H   -0.8136043160496 0.32629903686471 -1.0229070304614
H   -0.7945439900378 0.33579543993094 -1.0674813602050
H   -0.7886096404252 0.32851874601171 -1.0192429778027
F   1.21737850249080 0.33309924629938 0.32719676272378
F   0.84922726047708 0.30102734376336 0.26911045838843
F   0.82292099365787 0.29871999636374 0.26481382962148
