10

C         -2.84152        1.21798       -0.00283
H         -3.37064        2.05443        0.45860
H         -3.15260        1.13765       -1.04652
H         -3.11569        0.29803        0.51779
C         -1.38929        1.43142        0.07746
C         -0.22784        1.63002        0.15748
C          1.21021        1.91081        0.27634
H          1.44502        2.87229       -0.18511
H          1.50096        1.94513        1.32839
H          1.78818        1.13040       -0.22310
