10

C   -2.81150889235 1.22129467406  -0.00182910538909
H   -3.3817375297  2.0374973049   0.4489656972
H   -3.1241263336  1.1314980895   -1.0452496366
H   -3.0886449246  0.2967708634   0.5109787037
C   -1.39955117311 1.46251495473  0.0953639017745
C   -0.231063128432 1.66233256634  0.175901350684
C   1.18079304301  1.90402182808  0.273359929518
H   1.4491136164   2.857895012    -0.1878112921
H   1.5032242234   1.9349205109   1.3172134303
H   1.7498742757   1.1178565436   -0.2292264659
