18

F   -2.7150509000856 -0.0081355960465 -0.3024212563409
F   -2.7414387067724 -0.0104913739841 -0.3062417073404
F   -3.1090040266668 -0.0424074750360 -0.3654207049128
C   -1.3017622997945 0.11436724490862 -0.0753326196685
C   -0.9460867999448 0.14526934184104 -0.0185644012082
C   -0.5905122831509 0.17613099851246 0.03846070842612
H   -1.1307001959235 0.92721927753828 0.62551964959989
H   -1.1254028125887 0.96436867794429 0.65701447473423
H   -1.1045986207063 0.92950493414749 0.62949129402533
H   -0.9326777618757 -0.8212126675543 0.33656976584503
H   -0.9183130824831 -0.8643518676966 0.35476298829762
H   -0.9066766595345 -0.8188425880432 0.34050474396699
H   -0.8135746225744 0.32629771228733 -1.0229062193749
H   -0.7945442071333 0.33579493612180 -1.0674792936017
H   -0.7886301237734 0.32851570751427 -1.0192320059758
F   1.21723971403442 0.33308906581084 0.32717695034558
F   0.84926387983220 0.30102883943671 0.26911682730018
F   0.82290701396934 0.29872173581125 0.26480206962605
