18

F   -2.6971074078726 -0.0068295917015 -0.2992353956099
F   -2.6995344800890 -0.0066933741111 -0.2996109311921
F   -2.9440697509560 -0.0281525314020 -0.3391382383344
C   -1.2868769331626 0.11573031295159 -0.0730917200317
C   -0.9460833450473 0.14527987666101 -0.0185692096024
C   -0.6053137123373 0.17488541785397 0.03613831570002
H   -1.0848909399193 0.92347715668206 0.62619206588462
H   -1.1257850896573 0.96621362808172 0.65865938903498
H   -1.1473924939935 0.91787105252153 0.61613055525003
H   -0.8885421586957 -0.8077698717248 0.34004957588181
H   -0.9183400333636 -0.8667244215863 0.35551391596596
H   -0.9507205039454 -0.8133588832346 0.32991732611237
H   -0.7710734190392 0.32837279571647 -1.0063533446601
H   -0.7941339087742 0.33633251973218 -1.0698856310736
H   -0.8339491564708 0.32268717773647 -1.0165219292607
F   1.05196874210976 0.31864925794179 0.30104008929491
F   0.80735782223183 0.29722240420906 0.26248058586378
F   0.80492459942297 0.29769386293468 0.26207752395536
