6

F   -2.6995430880980 -0.0066927924993 -0.2996097568979
C   -0.9460829911988 0.14527902747821 -0.0185659177105
H   -1.1257864999572 0.96621739416878 0.65866327420300
H   -0.9183393707864 -0.8667275434968 0.35551391841561
H   -0.7941329945437 0.33633103355310 -1.0698880157036
F   0.80736439343123 0.29722391110275 0.26248385760988
