10

C   -2.8061575976025 1.22218005907907 -0.0014768883385
H   -3.3795243734999 2.03773809220000 0.44904428340000
H   -3.1217835595999 1.13183433020000 -1.0450549706000
H   -3.0863058367999 0.29716338470000 0.51106417130000
C   -1.3996218351105 1.46259834462639 0.09541176757433
C   -0.2311285237081 1.66242337929540 0.17595546583076
C   1.17535244339262 1.90306096580145 0.27296781082156
H   1.44678150110000 2.85736113000000 -0.1879804841000
H   1.50088249489999 1.93445094260000 1.31694112180000
H   1.74735691830000 1.11740836040000 -0.2294061223000
