18

F   -2.6971074078726 -0.0068295917015 -0.2992353956099
F   -2.6995326721284 -0.0066917075401 -0.2996086234346
F   -2.9440697509560 -0.0281525314020 -0.3391382383344
C   -1.2868769331626 0.11573031295159 -0.0730917200317
C   -0.9460837454975 0.14527835811990 -0.0185667176161
C   -0.6053137123373 0.17488541785397 0.03613831570002
H   -1.0848909399193 0.92347715668206 0.62619206588462
H   -1.1257853075522 0.96621586626954 0.65866175788038
H   -1.1473924939935 0.91787105252153 0.61613055525003
H   -0.8885421586957 -0.8077698717248 0.34004957588181
H   -0.9183402367779 -0.8667285572643 0.35551600181601
H   -0.9507205039454 -0.8133588832346 0.32991732611237
H   -0.7710734190392 0.32837279571647 -1.0063533446601
H   -0.7941338588145 0.33633259103953 -1.0698864464844
H   -0.8339491564708 0.32268717773647 -1.0165219292607
F   1.05196874210976 0.31864925794179 0.30104008929491
F   0.80735475539729 0.29722396546162 0.26248190197601
F   0.80492459942297 0.29769386293468 0.26207752395536
