6

F   -2.6995326721284 -0.0066917075401 -0.2996086234346
C   -0.9460837454975 0.14527835811990 -0.0185667176161
H   -1.1257853075522 0.96621586626954 0.65866175788038
H   -0.9183402367779 -0.8667285572643 0.35551600181601
H   -0.7941338588145 0.33633259103953 -1.0698864464844
F   0.80735475539729 0.29722396546162 0.26248190197601
