18

F   -2.7150502304196 -0.0081361787161 -0.3024208644292
F   -2.7414354712984 -0.0104891190384 -0.3062417549626
F   -3.1090005514145 -0.0424063292357 -0.3654215526277
C   -1.3017664075685 0.11436863179360 -0.0753350161856
C   -0.9460865438212 0.14527210522073 -0.0185660593703
C   -0.5905079785620 0.17613269600985 0.03846089284621
H   -1.1306974491223 0.92722409095572 0.62552415496419
H   -1.1254037237775 0.96437249830103 0.65701778144873
H   -1.1046038751549 0.92950931338066 0.62949523316224
H   -0.9326737475418 -0.8212170992076 0.33657280777951
H   -0.9183128834773 -0.8643545556979 0.35476413353129
H   -0.9066817896841 -0.8188475406417 0.34050632359164
H   -0.8135687283809 0.32629864142902 -1.0229093511392
H   -0.7945436857704 0.33579600792399 -1.0674838569456
H   -0.7886336802406 0.32851580209847 -1.0192387935892
F   1.21723556251924 0.33308691323125 0.32717326849640
F   0.84926030865950 0.30103006431909 0.26911575681296
F   0.82290587659913 0.29872205787433 0.26480189815968
