6

F   -2.7414023733098 -0.0104863760300 -0.3062364581448
C   -0.9460867367340 0.14527205391012 -0.0185660777048
H   -1.1254032854230 0.96437068073274 0.65701599462588
H   -0.9183128744581 -0.8643521412787 0.35476344355462
H   -0.7945439900378 0.33579543993094 -1.0674813602050
F   0.84922726047708 0.30102734376336 0.26911045838843
